# ====================
# | Model parameters |
# ====================
#
# Continuous equation parameters
 &PARM01
 sRef= 32.        , 32.08163265, 32.16326531, 32.24489796, 32.32653061,
       32.40816327, 32.48979592, 32.57142857, 32.65306122, 32.73469388,
       32.81632653, 32.89795918, 32.97959184, 33.06122449, 33.14285714,
       33.2244898 , 33.30612245, 33.3877551 , 33.46938776, 33.55102041,
       33.63265306, 33.71428571, 33.79591837, 33.87755102, 33.95918367,
       34.04081633, 34.12244898, 34.20408163, 34.28571429, 34.36734694,
       34.44897959, 34.53061224, 34.6122449 , 34.69387755, 34.7755102 ,
       34.85714286, 34.93877551, 35.02040816, 35.10204082, 35.18367347,
       35.26530612, 35.34693878, 35.42857143, 35.51020408, 35.59183673,
       35.67346939, 35.75510204, 35.83673469, 35.91836735, 36.
 Tref= 17.        , 16.73469388, 16.46938776, 16.20408163, 15.93877551,
       15.67346939, 15.40816327, 15.14285714, 14.87755102, 14.6122449 ,
       14.34693878, 14.08163265, 13.81632653, 13.55102041, 13.28571429,
       13.02040816, 12.75510204, 12.48979592, 12.2244898 , 11.95918367,
       11.69387755, 11.42857143, 11.16326531, 10.89795918, 10.63265306,
       10.36734694, 10.10204082,  9.83673469,  9.57142857,  9.30612245,
        9.04081633,  8.7755102 ,  8.51020408,  8.24489796,  7.97959184,
        7.71428571,  7.44897959,  7.18367347,  6.91836735,  6.65306122,
        6.3877551 ,  6.12244898,  5.85714286,  5.59183673,  5.32653061,
        5.06122449,  4.79591837,  4.53061224,  4.26530612,  4.
 viscAz=1.E-3,
 viscAh=100., 
 no_slip_sides=.FALSE.,
 no_slip_bottom=.FALSE.,
 diffKzT=1.E-3, 
 diffKhS=100.,   
 diffKzS=1.E-3,
 eosType='LINEAR',
 tAlpha=2.E-4,
 sBeta=7.4E-4,
 gravity=9.81,
 implicitFreeSurface=.TRUE.,
 exactConserv=.TRUE.
 nonHydrostatic=.FALSE.,
 nonlinFreeSurf=3,
 readBinaryPrec=64,
 writeBinaryPrec=64,
 writeStatePrec=64,
 useSingleCpuIO=.TRUE.,
 &

# Elliptic solver parameters
 &PARM02
 cg2dMaxIters=1000,
 cg2dTargetResidual=1.E-7,
 &

# Time stepping parameters
 &PARM03
 nIter0=0,
 nTimeSteps=7200,
 deltaT=60.,
 abEps=0.1,
 pChkptFreq=0.,
 chkptFreq=0.,
 dumpFreq=600.,
 monitorFreq=600.,
 monitorSelect=2,
 &

# Gridding parameters
 &PARM04
 usingSphericalPolarGrid=.TRUE.,
 delXfile='domain0_550x640_Father_dx.bin',
 delYfile='domain0_550x640_Father_dy.bin',
 delZ=   2,   2, 2.2, 2.4, 2.8,
       3.0, 3.5, 4.5,   5,   5,
       5,   5.5, 5.5,   6, 6.5,
       7,   7.5,   8, 8.5,  10,
       10    12,  14,  16,  18,
       20,   22,  25,  25,  25, 
       28,   30,  30,  35,  40,
       45,   50,  65,  75,  85,
       100, 100, 105, 115, 125, 
       150, 160, 200, 210, 250,
 &

# Input datasets
 &PARM05
 bathyFile='domain0_550x640_Father_bat.bin',
 &
